Data/networks/opendssNetworks/network_3/Feeder_6/Loads.txt
New Load.LOAD1 Phases=1 Bus1=40.2 kV=0.23 kW=1 PF=0.95 Daily=Shape_1
New Load.LOAD2 Phases=1 Bus1=43.2 kV=0.23 kW=1 PF=0.95 Daily=Shape_2
New Load.LOAD3 Phases=1 Bus1=52.1 kV=0.23 kW=1 PF=0.95 Daily=Shape_3
New Load.LOAD4 Phases=1 Bus1=62.1 kV=0.23 kW=1 PF=0.95 Daily=Shape_4
New Load.LOAD5 Phases=1 Bus1=72.1 kV=0.23 kW=1 PF=0.95 Daily=Shape_5
New Load.LOAD6 Phases=1 Bus1=74.1 kV=0.23 kW=1 PF=0.95 Daily=Shape_6
New Load.LOAD7 Phases=1 Bus1=130.1 kV=0.23 kW=1 PF=0.95 Daily=Shape_7
New Load.LOAD8 Phases=1 Bus1=134.1 kV=0.23 kW=1 PF=0.95 Daily=Shape_8
New Load.LOAD9 Phases=1 Bus1=177.1 kV=0.23 kW=1 PF=0.95 Daily=Shape_9
New Load.LOAD10 Phases=1 Bus1=200.3 kV=0.23 kW=1 PF=0.95 Daily=Shape_10
New Load.LOAD11 Phases=1 Bus1=221.2 kV=0.23 kW=1 PF=0.95 Daily=Shape_11
New Load.LOAD12 Phases=1 Bus1=240.1 kV=0.23 kW=1 PF=0.95 Daily=Shape_12
New Load.LOAD13 Phases=1 Bus1=250.2 kV=0.23 kW=1 PF=0.95 Daily=Shape_13
New Load.LOAD14 Phases=1 Bus1=258.3 kV=0.23 kW=1 PF=0.95 Daily=Shape_14
New Load.LOAD15 Phases=1 Bus1=266.3 kV=0.23 kW=1 PF=0.95 Daily=Shape_15
New Load.LOAD16 Phases=1 Bus1=301.2 kV=0.23 kW=1 PF=0.95 Daily=Shape_16
New Load.LOAD17 Phases=1 Bus1=305.1 kV=0.23 kW=1 PF=0.95 Daily=Shape_17
New Load.LOAD18 Phases=1 Bus1=313.1 kV=0.23 kW=1 PF=0.95 Daily=Shape_18
New Load.LOAD19 Phases=1 Bus1=315.2 kV=0.23 kW=1 PF=0.95 Daily=Shape_19
New Load.LOAD20 Phases=1 Bus1=330.1 kV=0.23 kW=1 PF=0.95 Daily=Shape_20
New Load.LOAD21 Phases=1 Bus1=353.2 kV=0.23 kW=1 PF=0.95 Daily=Shape_21
New Load.LOAD22 Phases=1 Bus1=354.3 kV=0.23 kW=1 PF=0.95 Daily=Shape_22
New Load.LOAD23 Phases=1 Bus1=361.3 kV=0.23 kW=1 PF=0.95 Daily=Shape_23
New Load.LOAD24 Phases=1 Bus1=374.3 kV=0.23 kW=1 PF=0.95 Daily=Shape_24
New Load.LOAD25 Phases=1 Bus1=382.1 kV=0.23 kW=1 PF=0.95 Daily=Shape_25
New Load.LOAD26 Phases=1 Bus1=383.3 kV=0.23 kW=1 PF=0.95 Daily=Shape_26
New Load.LOAD27 Phases=1 Bus1=393.2 kV=0.23 kW=1 PF=0.95 Daily=Shape_27
New Load.LOAD28 Phases=1 Bus1=401.2 kV=0.23 kW=1 PF=0.95 Daily=Shape_28
New Load.LOAD29 Phases=1 Bus1=408.3 kV=0.23 kW=1 PF=0.95 Daily=Shape_29
New Load.LOAD30 Phases=1 Bus1=413.2 kV=0.23 kW=1 PF=0.95 Daily=Shape_30
New Load.LOAD31 Phases=1 Bus1=445.1 kV=0.23 kW=1 PF=0.95 Daily=Shape_31
New Load.LOAD32 Phases=1 Bus1=450.3 kV=0.23 kW=1 PF=0.95 Daily=Shape_32
New Load.LOAD33 Phases=1 Bus1=459.1 kV=0.23 kW=1 PF=0.95 Daily=Shape_33
New Load.LOAD34 Phases=1 Bus1=494.2 kV=0.23 kW=1 PF=0.95 Daily=Shape_34
New Load.LOAD35 Phases=1 Bus1=519.2 kV=0.23 kW=1 PF=0.95 Daily=Shape_35
New Load.LOAD36 Phases=1 Bus1=521.1 kV=0.23 kW=1 PF=0.95 Daily=Shape_36
New Load.LOAD37 Phases=1 Bus1=524.3 kV=0.23 kW=1 PF=0.95 Daily=Shape_37
New Load.LOAD38 Phases=1 Bus1=549.3 kV=0.23 kW=1 PF=0.95 Daily=Shape_38
New Load.LOAD39 Phases=1 Bus1=554.3 kV=0.23 kW=1 PF=0.95 Daily=Shape_39
New Load.LOAD40 Phases=1 Bus1=564.2 kV=0.23 kW=1 PF=0.95 Daily=Shape_40
New Load.LOAD41 Phases=1 Bus1=569.1 kV=0.23 kW=1 PF=0.95 Daily=Shape_41
New Load.LOAD42 Phases=1 Bus1=572.3 kV=0.23 kW=1 PF=0.95 Daily=Shape_42
New Load.LOAD43 Phases=1 Bus1=578.1 kV=0.23 kW=1 PF=0.95 Daily=Shape_43
New Load.LOAD44 Phases=1 Bus1=593.2 kV=0.23 kW=1 PF=0.95 Daily=Shape_44
New Load.LOAD45 Phases=1 Bus1=610.1 kV=0.23 kW=1 PF=0.95 Daily=Shape_45
New Load.LOAD46 Phases=1 Bus1=616.1 kV=0.23 kW=1 PF=0.95 Daily=Shape_46
New Load.LOAD47 Phases=1 Bus1=625.2 kV=0.23 kW=1 PF=0.95 Daily=Shape_47
New Load.LOAD48 Phases=1 Bus1=635.2 kV=0.23 kW=1 PF=0.95 Daily=Shape_48
New Load.LOAD49 Phases=1 Bus1=639.1 kV=0.23 kW=1 PF=0.95 Daily=Shape_49
